Circuit: * C:\Users\bear917\Documents\GitHub\ltspice-exercise\lecture2\temp1.asc

Direct Newton iteration for .op point succeeded.

Date: Tue Nov 02 01:10:34 2021
Total elapsed time: 0.035 seconds.

tnom = 27
temp = 27
method = trap
totiter = 3
traniter = 0
tranpoints = 0
accept = 0
rejected = 0
matrix size = 4
fillins = 0
solver = Normal
Matrix Compiler1: 100 bytes object code size
Matrix Compiler2: 248 bytes object code size
